Version 4.1
SHEET 1 1996 856
WIRE -1296 -1936 -2224 -1936
WIRE -2368 -1872 -2672 -1872
WIRE -1840 -1872 -2176 -1872
WIRE -624 -1840 -624 -1872
WIRE -1136 -1824 -1136 -1888
WIRE -944 -1824 -944 -1888
WIRE -2400 -1808 -2528 -1808
WIRE -2672 -1792 -2672 -1872
WIRE -2640 -1792 -2672 -1792
WIRE -1296 -1792 -1296 -1936
WIRE -1200 -1792 -1296 -1792
WIRE -1008 -1792 -1088 -1792
WIRE -832 -1792 -896 -1792
WIRE -688 -1792 -752 -1792
WIRE -112 -1792 -176 -1792
WIRE 0 -1792 0 -1856
WIRE 0 -1792 -32 -1792
WIRE 16 -1792 0 -1792
WIRE 160 -1792 80 -1792
WIRE -2512 -1776 -2528 -1776
WIRE -2864 -1760 -2928 -1760
WIRE -2640 -1760 -2864 -1760
WIRE -2496 -1744 -2528 -1744
WIRE -2096 -1744 -2096 -1792
WIRE -1968 -1744 -1968 -1792
WIRE -1712 -1744 -1760 -1744
WIRE -576 -1728 -608 -1728
WIRE -2496 -1712 -2496 -1744
WIRE -2368 -1712 -2368 -1872
WIRE -2224 -1712 -2224 -1936
WIRE -2224 -1712 -2368 -1712
WIRE -2208 -1712 -2224 -1712
WIRE -1136 -1712 -1136 -1760
WIRE -944 -1712 -944 -1760
WIRE -2512 -1696 -2672 -1696
WIRE -2512 -1680 -2512 -1696
WIRE -2400 -1680 -2400 -1808
WIRE -2400 -1680 -2512 -1680
WIRE -624 -1680 -624 -1744
WIRE -608 -1680 -608 -1728
WIRE -608 -1680 -624 -1680
WIRE -368 -1680 -608 -1680
WIRE -2592 -1664 -2592 -1680
WIRE -2208 -1664 -2208 -1712
WIRE -2160 -1664 -2208 -1664
WIRE -1840 -1664 -1840 -1872
WIRE -1840 -1664 -1904 -1664
WIRE -1808 -1664 -1840 -1664
WIRE -2864 -1648 -2864 -1760
WIRE -2752 -1648 -2784 -1648
WIRE -2672 -1648 -2672 -1696
WIRE -2672 -1648 -2688 -1648
WIRE -2640 -1648 -2672 -1648
WIRE -2336 -1648 -2528 -1648
WIRE -1760 -1632 -1760 -1648
WIRE -1760 -1632 -1808 -1632
WIRE -624 -1632 -624 -1680
WIRE -2784 -1616 -2784 -1648
WIRE -1136 -1616 -1136 -1648
WIRE -944 -1616 -944 -1648
WIRE -2592 -1600 -2592 -1616
WIRE -2480 -1600 -2592 -1600
WIRE -2896 -1584 -2944 -1584
WIRE -2800 -1584 -2832 -1584
WIRE -2416 -1584 -2688 -1584
WIRE -1200 -1584 -1296 -1584
WIRE -1008 -1584 -1088 -1584
WIRE -832 -1584 -896 -1584
WIRE -688 -1584 -752 -1584
WIRE -2800 -1568 -2800 -1584
WIRE -2160 -1568 -2208 -1568
WIRE -1824 -1568 -1904 -1568
WIRE -2944 -1552 -2944 -1584
WIRE -2480 -1536 -2528 -1536
WIRE -2320 -1536 -2320 -1568
WIRE -1712 -1536 -1712 -1744
WIRE -1712 -1536 -1760 -1536
WIRE -2688 -1520 -2688 -1584
WIRE -2640 -1520 -2688 -1520
WIRE -2496 -1504 -2528 -1504
WIRE -2416 -1504 -2416 -1584
WIRE -2384 -1504 -2416 -1504
WIRE -2240 -1504 -2272 -1504
WIRE -2208 -1504 -2208 -1568
WIRE -2208 -1504 -2240 -1504
WIRE -1136 -1504 -1136 -1552
WIRE -944 -1504 -944 -1552
WIRE -624 -1504 -624 -1536
WIRE -368 -1504 -368 -1680
WIRE -2864 -1488 -2864 -1536
WIRE -2640 -1488 -2864 -1488
WIRE -2496 -1488 -2496 -1504
WIRE -2512 -1472 -2528 -1472
WIRE -2240 -1456 -2240 -1504
WIRE -2144 -1456 -2240 -1456
WIRE -1824 -1456 -1824 -1568
WIRE -1808 -1456 -1824 -1456
WIRE -2320 -1440 -2320 -1472
WIRE -2096 -1440 -2096 -1488
WIRE -1968 -1440 -1968 -1488
WIRE -2368 -1424 -2400 -1424
WIRE -2192 -1424 -2256 -1424
WIRE -2512 -1408 -2512 -1472
WIRE -2400 -1392 -2400 -1424
WIRE -2256 -1392 -2256 -1424
WIRE -2144 -1392 -2144 -1456
WIRE -1296 -1392 -1296 -1584
WIRE -1296 -1392 -2144 -1392
WIRE -2576 -1360 -2608 -1360
WIRE -2480 -1360 -2480 -1536
WIRE -2480 -1360 -2512 -1360
WIRE -2448 -1360 -2480 -1360
WIRE -2304 -1360 -2336 -1360
WIRE -2176 -1360 -2176 -1872
WIRE -2176 -1360 -2192 -1360
WIRE -368 -1360 -368 -1424
WIRE -2608 -1328 -2608 -1360
WIRE -2400 -1312 -2400 -1328
WIRE -2256 -1312 -2256 -1328
WIRE -624 -1296 -624 -1328
WIRE -1136 -1280 -1136 -1344
WIRE -944 -1280 -944 -1344
WIRE -1200 -1248 -2240 -1248
WIRE -1008 -1248 -1088 -1248
WIRE -832 -1248 -896 -1248
WIRE -688 -1248 -752 -1248
WIRE -368 -1232 -368 -1280
WIRE -1136 -1168 -1136 -1216
WIRE -944 -1168 -944 -1216
WIRE -5664 -1136 -5664 -1168
WIRE -624 -1136 -624 -1200
WIRE -608 -1136 -624 -1136
WIRE -368 -1136 -368 -1152
WIRE -368 -1136 -608 -1136
WIRE -608 -1104 -608 -1136
WIRE -592 -1104 -608 -1104
WIRE -624 -1088 -624 -1136
WIRE -1136 -1072 -1136 -1104
WIRE -944 -1072 -944 -1104
WIRE -6096 -1040 -6832 -1040
WIRE -2352 -1040 -2656 -1040
WIRE -1824 -1040 -2160 -1040
WIRE -1200 -1040 -1568 -1040
WIRE -1008 -1040 -1088 -1040
WIRE -832 -1040 -896 -1040
WIRE -688 -1040 -752 -1040
WIRE -96 -1040 -160 -1040
WIRE 16 -1040 16 -1104
WIRE 16 -1040 -16 -1040
WIRE 32 -1040 16 -1040
WIRE 176 -1040 96 -1040
WIRE -7008 -1024 -7008 -1040
WIRE -5664 -1024 -5664 -1056
WIRE -2384 -976 -2512 -976
WIRE -6624 -960 -6688 -960
WIRE -6528 -960 -6560 -960
WIRE -6384 -960 -6416 -960
WIRE -6096 -960 -6096 -1040
WIRE -6096 -960 -6304 -960
WIRE -2656 -960 -2656 -1040
WIRE -2624 -960 -2656 -960
WIRE -1136 -960 -1136 -1008
WIRE -944 -960 -944 -1008
WIRE -624 -960 -624 -992
WIRE -2496 -944 -2512 -944
WIRE -6544 -928 -6560 -928
WIRE -2848 -928 -2912 -928
WIRE -2624 -928 -2848 -928
WIRE -7008 -912 -7008 -944
WIRE -6944 -912 -7008 -912
WIRE -6560 -912 -6560 -928
WIRE -2480 -912 -2512 -912
WIRE -2080 -912 -2080 -960
WIRE -1952 -912 -1952 -960
WIRE -1696 -912 -1744 -912
WIRE -2480 -880 -2480 -912
WIRE -2352 -880 -2352 -1040
WIRE -2240 -880 -2240 -1248
WIRE -2240 -880 -2352 -880
WIRE -2192 -880 -2240 -880
WIRE -7008 -864 -7008 -912
WIRE -6288 -864 -6288 -880
WIRE -6224 -864 -6288 -864
WIRE -6096 -864 -6096 -960
WIRE -6096 -864 -6144 -864
WIRE -2496 -864 -2656 -864
WIRE -6544 -848 -6544 -928
WIRE -6544 -848 -6608 -848
WIRE -2496 -848 -2496 -864
WIRE -2384 -848 -2384 -976
WIRE -2384 -848 -2496 -848
WIRE -6832 -832 -6832 -1040
WIRE -6800 -832 -6832 -832
WIRE -6688 -832 -6688 -960
WIRE -6688 -832 -6720 -832
WIRE -6640 -832 -6688 -832
WIRE -6288 -832 -6288 -864
WIRE -2576 -832 -2576 -848
WIRE -2192 -832 -2192 -880
WIRE -2144 -832 -2192 -832
WIRE -1824 -832 -1824 -1040
WIRE -1824 -832 -1888 -832
WIRE -1792 -832 -1824 -832
WIRE -6528 -816 -6528 -960
WIRE -6528 -816 -6576 -816
WIRE -6320 -816 -6368 -816
WIRE -2848 -816 -2848 -928
WIRE -2736 -816 -2768 -816
WIRE -2656 -816 -2656 -864
WIRE -2656 -816 -2672 -816
WIRE -2624 -816 -2656 -816
WIRE -2320 -816 -2512 -816
WIRE -6640 -800 -6656 -800
WIRE -6096 -800 -6096 -864
WIRE -6096 -800 -6256 -800
WIRE -4800 -800 -5264 -800
WIRE -1744 -800 -1744 -816
WIRE -1744 -800 -1792 -800
WIRE -6528 -784 -6528 -816
WIRE -6512 -784 -6528 -784
WIRE -6416 -784 -6416 -960
WIRE -6416 -784 -6432 -784
WIRE -6368 -784 -6368 -816
WIRE -6368 -784 -6416 -784
WIRE -6320 -784 -6352 -784
WIRE -2768 -784 -2768 -816
WIRE -6608 -768 -6608 -784
WIRE -2576 -768 -2576 -784
WIRE -2464 -768 -2576 -768
WIRE -7008 -752 -7008 -784
WIRE -6288 -752 -6288 -768
WIRE -5296 -752 -5600 -752
WIRE -4768 -752 -5104 -752
WIRE -2880 -752 -2928 -752
WIRE -2784 -752 -2816 -752
WIRE -2400 -752 -2672 -752
WIRE -2784 -736 -2784 -752
WIRE -2144 -736 -2192 -736
WIRE -1808 -736 -1888 -736
WIRE -6528 -720 -6528 -784
WIRE -6512 -720 -6528 -720
WIRE -2928 -720 -2928 -752
WIRE -2464 -704 -2512 -704
WIRE -2304 -704 -2304 -736
WIRE -1696 -704 -1696 -912
WIRE -1696 -704 -1744 -704
WIRE -5328 -688 -5456 -688
WIRE -2672 -688 -2672 -752
WIRE -2624 -688 -2672 -688
WIRE -6256 -672 -6256 -688
WIRE -6208 -672 -6256 -672
WIRE -6096 -672 -6128 -672
WIRE -5600 -672 -5600 -752
WIRE -5568 -672 -5600 -672
WIRE -2480 -672 -2512 -672
WIRE -2400 -672 -2400 -752
WIRE -2368 -672 -2400 -672
WIRE -2224 -672 -2256 -672
WIRE -2192 -672 -2192 -736
WIRE -2192 -672 -2224 -672
WIRE -5440 -656 -5456 -656
WIRE -2848 -656 -2848 -704
WIRE -2624 -656 -2848 -656
WIRE -2480 -656 -2480 -672
WIRE -6256 -640 -6256 -672
WIRE -5792 -640 -5856 -640
WIRE -5568 -640 -5792 -640
WIRE -2496 -640 -2512 -640
WIRE -6528 -624 -6528 -720
WIRE -6512 -624 -6528 -624
WIRE -6400 -624 -6400 -656
WIRE -6400 -624 -6448 -624
WIRE -6352 -624 -6400 -624
WIRE -6288 -624 -6320 -624
WIRE -5424 -624 -5456 -624
WIRE -5024 -624 -5024 -672
WIRE -4896 -624 -4896 -672
WIRE -4640 -624 -4688 -624
WIRE -2224 -624 -2224 -672
WIRE -2128 -624 -2224 -624
WIRE -1808 -624 -1808 -736
WIRE -1792 -624 -1808 -624
WIRE -6096 -608 -6096 -672
WIRE -6096 -608 -6224 -608
WIRE -6032 -608 -6096 -608
WIRE -2304 -608 -2304 -640
WIRE -2080 -608 -2080 -656
WIRE -1952 -608 -1952 -656
WIRE -6400 -592 -6400 -624
WIRE -6352 -592 -6352 -624
WIRE -6288 -592 -6352 -592
WIRE -5424 -592 -5424 -624
WIRE -5296 -592 -5296 -752
WIRE -5136 -592 -5296 -592
WIRE -2352 -592 -2384 -592
WIRE -2176 -592 -2240 -592
WIRE -5440 -576 -5600 -576
WIRE -2496 -576 -2496 -640
WIRE -6256 -560 -6256 -576
WIRE -5440 -560 -5440 -576
WIRE -5328 -560 -5328 -688
WIRE -5328 -560 -5440 -560
WIRE -2384 -560 -2384 -592
WIRE -2240 -560 -2240 -592
WIRE -2128 -560 -2128 -624
WIRE -1568 -560 -1568 -1040
WIRE -1568 -560 -2128 -560
WIRE -7040 -544 -7040 -560
WIRE -6928 -544 -6928 -560
WIRE -6800 -544 -6800 -576
WIRE -5520 -544 -5520 -560
WIRE -5136 -544 -5136 -592
WIRE -5088 -544 -5136 -544
WIRE -4768 -544 -4768 -752
WIRE -4768 -544 -4832 -544
WIRE -4736 -544 -4768 -544
WIRE -5792 -528 -5792 -640
WIRE -5680 -528 -5712 -528
WIRE -5600 -528 -5600 -576
WIRE -5600 -528 -5616 -528
WIRE -5568 -528 -5600 -528
WIRE -5264 -528 -5264 -800
WIRE -5264 -528 -5456 -528
WIRE -2560 -528 -2592 -528
WIRE -2464 -528 -2464 -704
WIRE -2464 -528 -2496 -528
WIRE -2432 -528 -2464 -528
WIRE -2288 -528 -2320 -528
WIRE -2160 -528 -2160 -1040
WIRE -2160 -528 -2176 -528
WIRE -4688 -512 -4688 -528
WIRE -4688 -512 -4736 -512
WIRE -6400 -496 -6400 -512
WIRE -5712 -496 -5712 -528
WIRE -4640 -496 -4640 -624
WIRE -4576 -496 -4640 -496
WIRE -4448 -496 -4496 -496
WIRE -4240 -496 -4448 -496
WIRE -2592 -496 -2592 -528
WIRE -5520 -480 -5520 -496
WIRE -5408 -480 -5520 -480
WIRE -2384 -480 -2384 -496
WIRE -2240 -480 -2240 -496
WIRE -5824 -464 -5872 -464
WIRE -5728 -464 -5760 -464
WIRE -5344 -464 -5616 -464
WIRE -7040 -448 -7040 -464
WIRE -6928 -448 -6928 -464
WIRE -6800 -448 -6800 -464
WIRE -5728 -448 -5728 -464
WIRE -5088 -448 -5136 -448
WIRE -4800 -448 -4800 -800
WIRE -4800 -448 -4832 -448
WIRE -4752 -448 -4800 -448
WIRE -5872 -432 -5872 -464
WIRE -4448 -432 -4448 -496
WIRE -5408 -416 -5456 -416
WIRE -5248 -416 -5248 -448
WIRE -4640 -416 -4640 -496
WIRE -4640 -416 -4688 -416
WIRE -5616 -400 -5616 -464
WIRE -5568 -400 -5616 -400
WIRE -5424 -384 -5456 -384
WIRE -5344 -384 -5344 -464
WIRE -5312 -384 -5344 -384
WIRE -5136 -384 -5136 -448
WIRE -5136 -384 -5200 -384
WIRE -5792 -368 -5792 -416
WIRE -5568 -368 -5792 -368
WIRE -5424 -368 -5424 -384
WIRE -5440 -352 -5456 -352
WIRE -4752 -336 -4752 -448
WIRE -4736 -336 -4752 -336
WIRE -4448 -336 -4448 -368
WIRE -5248 -320 -5248 -352
WIRE -5024 -320 -5024 -368
WIRE -4896 -320 -4896 -368
WIRE -5296 -304 -5328 -304
WIRE -5120 -304 -5184 -304
WIRE -4240 -304 -4240 -496
WIRE -5440 -288 -5440 -352
WIRE -6224 -272 -6272 -272
WIRE -6016 -272 -6160 -272
WIRE -5328 -272 -5328 -304
WIRE -5184 -272 -5184 -304
WIRE -5504 -240 -5536 -240
WIRE -5408 -240 -5408 -416
WIRE -5408 -240 -5440 -240
WIRE -5376 -240 -5408 -240
WIRE -5232 -240 -5264 -240
WIRE -5104 -240 -5104 -752
WIRE -5104 -240 -5120 -240
WIRE -5536 -208 -5536 -240
WIRE -6208 -192 -6208 -208
WIRE -5328 -192 -5328 -208
WIRE -5184 -192 -5184 -208
WIRE -6144 -176 -6176 -176
WIRE -128 -176 -304 -176
WIRE -16 -176 -64 -176
WIRE -6320 -160 -6320 -624
WIRE -6272 -160 -6272 -272
WIRE -6272 -160 -6320 -160
WIRE -6240 -160 -6272 -160
WIRE -6016 -144 -6016 -272
WIRE -6016 -144 -6176 -144
WIRE -5952 -144 -6016 -144
WIRE -4240 -144 -4240 -240
WIRE -4240 -144 -5872 -144
WIRE -6208 -112 -6208 -128
WIRE -4240 -96 -4240 -144
WIRE -16 -96 -16 -176
WIRE -16 -96 -64 -96
WIRE -2400 -16 -2400 -48
WIRE -4240 0 -4240 -16
WIRE -2432 0 -2544 0
WIRE -2400 0 -2400 -16
WIRE -2224 16 -2368 16
WIRE -2176 16 -2224 16
WIRE -2432 32 -2752 32
WIRE -400 32 -464 32
WIRE -304 32 -304 -176
WIRE -304 32 -320 32
WIRE -288 32 -304 32
WIRE -144 32 -144 -96
WIRE -144 32 -224 32
WIRE -128 32 -144 32
WIRE -16 48 -16 -96
WIRE -16 48 -64 48
WIRE 160 48 -16 48
WIRE -288 64 -288 32
WIRE -128 64 -144 64
WIRE -2400 80 -2400 48
WIRE -2352 80 -2400 80
WIRE -2224 80 -2224 16
WIRE -2224 80 -2272 80
WIRE 1040 80 992 80
WIRE 1184 80 1120 80
WIRE 832 96 752 96
WIRE 944 96 912 96
WIRE -3440 112 -3712 112
WIRE -2400 112 -2400 80
WIRE 1728 112 1488 112
WIRE -3072 144 -3216 144
WIRE -2848 144 -2992 144
WIRE -736 160 -736 128
WIRE 1552 160 1552 144
WIRE 1072 176 1072 160
WIRE 1488 176 1488 112
WIRE 1520 176 1488 176
WIRE -128 192 -320 192
WIRE -16 192 -64 192
WIRE 944 192 944 96
WIRE 992 192 992 80
WIRE 992 192 944 192
WIRE 1040 192 992 192
WIRE 1632 192 1584 192
WIRE 1728 192 1728 112
WIRE 1728 192 1696 192
WIRE 1792 192 1728 192
WIRE -3088 208 -3088 192
WIRE 1184 208 1184 80
WIRE 1184 208 1104 208
WIRE 1344 208 1184 208
WIRE 1456 208 1408 208
WIRE 1520 208 1456 208
WIRE -3440 224 -3440 112
WIRE -3360 224 -3376 224
WIRE -3216 224 -3216 144
WIRE -3216 224 -3280 224
WIRE -3120 224 -3216 224
WIRE 1040 224 1008 224
WIRE 1728 224 1728 192
WIRE -2848 240 -2848 144
WIRE -2848 240 -3056 240
WIRE -2752 240 -2752 32
WIRE -2752 240 -2848 240
WIRE -2720 240 -2752 240
WIRE -3120 256 -3152 256
WIRE 832 256 752 256
WIRE 944 256 944 192
WIRE 944 256 912 256
WIRE 1072 256 1072 240
WIRE 1184 256 1184 208
WIRE 1552 256 1552 224
WIRE -16 272 -16 192
WIRE -16 272 -64 272
WIRE 1008 288 1008 224
WIRE 1792 288 1792 272
WIRE 1872 288 1792 288
WIRE 1888 288 1872 288
WIRE -3088 304 -3088 272
WIRE 1456 304 1456 288
WIRE 1792 304 1792 288
WIRE 1872 320 1872 288
WIRE -3376 384 -3376 224
WIRE -2912 384 -3376 384
WIRE -2864 384 -2912 384
WIRE -400 400 -464 400
WIRE -320 400 -320 192
WIRE -288 400 -320 400
WIRE -144 400 -144 272
WIRE -144 400 -224 400
WIRE -128 400 -144 400
WIRE -16 416 -16 272
WIRE -16 416 -64 416
WIRE 160 416 -16 416
WIRE -288 432 -288 400
WIRE -128 432 -144 432
WIRE -2544 480 -2544 0
WIRE -2416 480 -2544 480
WIRE -2384 480 -2384 464
WIRE -2208 496 -2352 496
WIRE -2160 496 -2208 496
WIRE -2912 512 -2912 384
WIRE -2416 512 -2912 512
WIRE -2384 528 -2384 512
WIRE -2384 560 -2384 528
WIRE -2336 560 -2384 560
WIRE -2208 560 -2208 496
WIRE -2208 560 -2256 560
WIRE -2384 608 -2384 560
WIRE -2544 720 -2544 480
FLAG -3152 256 VCM
IOPIN -3152 256 In
FLAG -2720 240 Vina-
IOPIN -2720 240 Out
FLAG -2864 384 Vina+
IOPIN -2864 384 Out
FLAG -2400 -48 0
FLAG -2544 720 Vramp
IOPIN -2544 720 In
FLAG -2176 16 Vpwmp
IOPIN -2176 16 Out
FLAG -2160 496 Vpwmn
IOPIN -2160 496 Out
FLAG -5712 -496 0
FLAG -5536 -208 0
FLAG -4688 -320 0
FLAG -4736 -512 Vin
IOPIN -4736 -512 In
FLAG -4448 -336 0
FLAG -4640 -496 Vsw
FLAG -7040 -448 0
FLAG -7008 -752 0
FLAG -7008 -1040 VDD
IOPIN -7008 -1040 In
FLAG -6288 -880 VDD
IOPIN -6288 -880 In
FLAG -6512 -720 Vramp
IOPIN -6512 -720 Out
FLAG -6400 -656 VrampB
IOPIN -6400 -656 Out
FLAG -6944 -912 VCM
IOPIN -6944 -912 Out
FLAG -6928 -448 0
FLAG -7040 -560 VDD
IOPIN -7040 -560 Out
FLAG -6928 -560 Vctrl
IOPIN -6928 -560 Out
FLAG -6288 -752 0
FLAG -6256 -688 VDD
IOPIN -6256 -688 In
FLAG -6256 -560 0
FLAG -6400 -496 Vbias
IOPIN -6400 -496 In
FLAG -6656 -800 VCM
IOPIN -6656 -800 In
FLAG -6352 -784 VCM
IOPIN -6352 -784 In
FLAG -6032 -608 Vpwm
IOPIN -6032 -608 Out
FLAG -5024 -320 0
FLAG -4896 -320 0
FLAG -5024 -672 VDD
IOPIN -5024 -672 In
FLAG -4896 -672 VDD
IOPIN -4896 -672 In
FLAG -5424 -592 0
FLAG -5440 -656 VDD
IOPIN -5440 -656 In
FLAG -5728 -448 VDD
IOPIN -5728 -448 In
FLAG -5328 -192 VDD
IOPIN -5328 -192 In
FLAG -5184 -192 VDD
IOPIN -5184 -192 In
FLAG -5424 -368 VDD
IOPIN -5424 -368 In
FLAG -5440 -288 0
FLAG -5520 -544 0
FLAG -5248 -320 0
FLAG -5296 -304 0
FLAG -5872 -432 0
FLAG -5408 -480 VDD
IOPIN -5408 -480 In
FLAG -5248 -448 VDD
IOPIN -5248 -448 In
FLAG -5664 -1168 Vin
IOPIN -5664 -1168 Out
FLAG -5664 -1024 0
FLAG -5120 -304 0
FLAG -6560 -912 0
FLAG -6608 -768 VDD
IOPIN -6608 -768 In
FLAG -5856 -640 Vpwm
IOPIN -5856 -640 In
FLAG -6800 -448 0
FLAG -6800 -576 Vbias
IOPIN -6800 -576 Out
FLAG -6144 -176 Vref
IOPIN -6144 -176 In
FLAG -4240 0 0
FLAG -6208 -112 0
FLAG -6208 -208 VDD
IOPIN -6208 -208 In
FLAG -2400 112 VDD
IOPIN -2400 112 In
FLAG -2384 464 0
FLAG -2384 608 VDD
IOPIN -2384 608 In
FLAG -3088 192 0
FLAG -3088 304 VDD
IOPIN -3088 304 In
FLAG -624 -1504 0
FLAG -624 -1872 VDD
IOPIN -624 -1872 In
FLAG -1136 -1712 0
FLAG -944 -1712 0
FLAG -1136 -1504 0
FLAG -944 -1504 0
FLAG -944 -1888 VDD
IOPIN -944 -1888 In
FLAG -1136 -1888 VDD
IOPIN -1136 -1888 In
FLAG -1136 -1648 VDD
IOPIN -1136 -1648 In
FLAG -944 -1648 VDD
IOPIN -944 -1648 In
FLAG -624 -960 0
FLAG -624 -1328 VDD
IOPIN -624 -1328 In
FLAG -1136 -1168 0
FLAG -944 -1168 0
FLAG -1136 -960 0
FLAG -944 -960 0
FLAG -944 -1344 VDD
IOPIN -944 -1344 In
FLAG -1136 -1344 VDD
IOPIN -1136 -1344 In
FLAG -1136 -1104 VDD
IOPIN -1136 -1104 In
FLAG -944 -1104 VDD
IOPIN -944 -1104 In
FLAG -2784 -1616 0
FLAG -2608 -1328 0
FLAG -1760 -1440 0
FLAG -1808 -1632 Vin
IOPIN -1808 -1632 In
FLAG -2096 -1440 0
FLAG -1968 -1440 0
FLAG -2096 -1792 VDD
IOPIN -2096 -1792 In
FLAG -1968 -1792 VDD
IOPIN -1968 -1792 In
FLAG -2496 -1712 0
FLAG -2512 -1776 VDD
IOPIN -2512 -1776 In
FLAG -2800 -1568 VDD
IOPIN -2800 -1568 In
FLAG -2400 -1312 VDD
IOPIN -2400 -1312 In
FLAG -2256 -1312 VDD
IOPIN -2256 -1312 In
FLAG -2496 -1488 VDD
IOPIN -2496 -1488 In
FLAG -2512 -1408 0
FLAG -2592 -1664 0
FLAG -2320 -1440 0
FLAG -2368 -1424 0
FLAG -2944 -1552 0
FLAG -2480 -1600 VDD
IOPIN -2480 -1600 In
FLAG -2320 -1568 VDD
IOPIN -2320 -1568 In
FLAG -2192 -1424 0
FLAG -2928 -1760 Vpwmp
IOPIN -2928 -1760 In
FLAG -2768 -784 0
FLAG -2592 -496 0
FLAG -1744 -608 0
FLAG -1792 -800 Vin
IOPIN -1792 -800 In
FLAG -2080 -608 0
FLAG -1952 -608 0
FLAG -2080 -960 VDD
IOPIN -2080 -960 In
FLAG -1952 -960 VDD
IOPIN -1952 -960 In
FLAG -2480 -880 0
FLAG -2496 -944 VDD
IOPIN -2496 -944 In
FLAG -2784 -736 VDD
IOPIN -2784 -736 In
FLAG -2384 -480 VDD
IOPIN -2384 -480 In
FLAG -2240 -480 VDD
IOPIN -2240 -480 In
FLAG -2480 -656 VDD
IOPIN -2480 -656 In
FLAG -2496 -576 0
FLAG -2576 -832 0
FLAG -2304 -608 0
FLAG -2352 -592 0
FLAG -2928 -720 0
FLAG -2464 -768 VDD
IOPIN -2464 -768 In
FLAG -2304 -736 VDD
IOPIN -2304 -736 In
FLAG -2176 -592 0
FLAG -2912 -928 Vpwmn
IOPIN -2912 -928 In
FLAG -576 -1728 Vout+
IOPIN -576 -1728 Out
FLAG -592 -1104 Vout-
IOPIN -592 -1104 Out
FLAG 160 -1792 0
FLAG -176 -1792 Vout+
IOPIN -176 -1792 In
FLAG 0 -1856 Vver1
IOPIN 0 -1856 Out
FLAG 176 -1040 0
FLAG -160 -1040 Vout-
IOPIN -160 -1040 In
FLAG 16 -1104 Vver2
IOPIN 16 -1104 Out
FLAG -736 240 0
FLAG -736 128 Vin_audio
IOPIN -736 128 Out
FLAG -96 80 0
FLAG -96 16 VDD
IOPIN -96 16 In
FLAG -144 64 VCM
IOPIN -144 64 In
FLAG -288 144 0
FLAG -464 32 Vin_audio
IOPIN -464 32 In
FLAG 160 48 Vout_bpf1
IOPIN 160 48 Out
FLAG -96 448 0
FLAG -96 384 VDD
IOPIN -96 384 In
FLAG -144 432 VCM
IOPIN -144 432 In
FLAG -288 512 0
FLAG -464 400 Vin_audio
IOPIN -464 400 In
FLAG 160 416 Vout_bpf2
IOPIN 160 416 Out
FLAG 752 96 Vout_bpf1
IOPIN 752 96 In
FLAG 752 256 Vout_bpf2
IOPIN 752 256 In
FLAG 1008 288 VCM
IOPIN 1008 288 In
FLAG 1456 304 0
FLAG 1728 288 0
FLAG 1184 256 Vout_adder
IOPIN 1184 256 Out
FLAG 1792 384 0
FLAG 1872 384 0
FLAG 1888 288 Vref
IOPIN 1888 288 Out
FLAG 1072 160 0
FLAG 1552 144 0
FLAG 1072 256 VDD
IOPIN 1072 256 In
FLAG 1552 256 VDD
IOPIN 1552 256 In
FLAG -3712 112 Vout_adder
IOPIN -3712 112 In
SYMBOL cap -3376 208 R90
WINDOW 0 0 32 VBottom 2
WINDOW 3 32 32 VTop 2
SYMATTR InstName C1
SYMATTR Value 100n
SYMBOL res -3264 208 R90
WINDOW 0 0 56 VBottom 2
WINDOW 3 32 56 VTop 2
SYMATTR InstName r1
SYMATTR Value 1k
SYMBOL res -2976 128 R90
WINDOW 0 0 56 VBottom 2
WINDOW 3 32 56 VTop 2
SYMATTR InstName r2
SYMATTR Value 1k
SYMBOL res -2256 64 R90
WINDOW 0 0 56 VBottom 2
WINDOW 3 32 56 VTop 2
SYMATTR InstName R3
SYMATTR Value 4.7k
SYMBOL LM339 -2368 16 M180
SYMATTR InstName U1
SYMBOL LM339 -2352 496 M180
SYMATTR InstName U2
SYMBOL res -2240 544 R90
WINDOW 0 0 56 VBottom 2
WINDOW 3 32 56 VTop 2
SYMATTR InstName R4
SYMATTR Value 4.7k
SYMBOL MCP6001 -3088 240 M180
SYMATTR InstName U3
SYMBOL cap -5616 -544 R90
WINDOW 0 0 32 VBottom 2
WINDOW 3 32 32 VTop 2
SYMATTR InstName C2
SYMATTR Value 0.000000000001
SYMBOL cap -5440 -256 R90
WINDOW 0 0 32 VBottom 2
WINDOW 3 32 32 VTop 2
SYMATTR InstName C3
SYMATTR Value 0.000000000001
SYMBOL PowerProducts\\LTC1693-1 -4960 -496 R0
SYMATTR InstName U4
SYMBOL ind -4592 -480 R270
WINDOW 0 32 56 VTop 2
WINDOW 3 5 56 VBottom 2
SYMATTR InstName L1
SYMATTR Value 0.0001
SYMBOL cap -4464 -432 R0
SYMATTR InstName C4
SYMATTR Value 0.000047
SYMBOL res -6704 -848 R90
WINDOW 0 0 56 VBottom 2
WINDOW 3 32 56 VTop 2
SYMATTR InstName R5
SYMATTR Value 12.5k
SYMBOL res -6416 -800 R90
WINDOW 0 0 56 VBottom 2
WINDOW 3 32 56 VTop 2
SYMATTR InstName R6
SYMATTR Value 20k
SYMBOL res -6288 -976 R90
WINDOW 0 0 56 VBottom 2
WINDOW 3 32 56 VTop 2
SYMATTR InstName R7
SYMATTR Value 100k
SYMBOL res -6384 -496 R180
WINDOW 0 36 76 Left 2
WINDOW 3 36 40 Left 2
SYMATTR InstName Rbias1
SYMATTR Value 10k
SYMBOL res -6992 -928 R180
WINDOW 0 36 76 Left 2
WINDOW 3 36 40 Left 2
SYMATTR InstName Ra1
SYMATTR Value 5k
SYMBOL res -6992 -768 R180
WINDOW 0 36 76 Left 2
WINDOW 3 36 40 Left 2
SYMATTR InstName Rb1
SYMATTR Value 5k
SYMBOL cap -6560 -976 R90
WINDOW 0 0 32 VBottom 2
WINDOW 3 32 32 VTop 2
SYMATTR InstName C5
SYMATTR Value 1n
SYMBOL cap -6448 -640 R90
WINDOW 0 0 32 VBottom 2
WINDOW 3 32 32 VTop 2
SYMATTR InstName Cbias1
SYMATTR Value 100n
SYMBOL voltage -7040 -560 R0
SYMATTR InstName V1
SYMATTR Value 5
SYMBOL voltage -6928 -560 R0
WINDOW 123 0 0 Left 0
WINDOW 39 0 0 Left 0
SYMATTR InstName V2
SYMATTR Value 2.5
SYMBOL res -6112 -688 R90
WINDOW 0 0 56 VBottom 2
WINDOW 3 32 56 VTop 2
SYMATTR InstName Rpullup1
SYMATTR Value 4.7k
SYMBOL res -6128 -880 R90
WINDOW 0 0 56 VBottom 2
WINDOW 3 54 56 VBottom 2
SYMATTR InstName Rpullup2
SYMATTR Value 4.7k
SYMBOL LM339 -6256 -800 R0
SYMATTR InstName U5
SYMBOL LM339 -6224 -608 R0
SYMATTR InstName U6
SYMBOL pmos -4736 -624 R0
WINDOW 3 70 -14 Left 2
SYMATTR Value Si4427DY
SYMATTR InstName M1
SYMBOL nmos -4736 -416 R0
WINDOW 3 47 112 Left 2
SYMATTR Value NTMFS5C646NL
SYMATTR InstName M2
SYMBOL voltage -5664 -1152 R0
WINDOW 123 0 0 Left 0
WINDOW 39 0 0 Left 0
SYMATTR InstName V3
SYMATTR Value 5
SYMBOL CD4069UB -5792 -480 R90
SYMATTR InstName U7
SYMBOL CD4069UB -5264 -384 R0
SYMATTR InstName U8
SYMBOL CD4069UB -5312 -240 R180
SYMATTR InstName U9
SYMBOL CD4069UB -5168 -240 R180
SYMATTR InstName U10
SYMBOL CD4069UB -5504 -528 R180
SYMATTR InstName U11
SYMBOL SN74AHC00 -5520 -656 R0
SYMATTR InstName U12
SYMBOL SN74AHC00 -5520 -384 R0
SYMATTR InstName U13
SYMBOL MCP6001 -6608 -816 M180
SYMATTR InstName U14
SYMBOL voltage -6800 -560 R0
WINDOW 123 0 0 Left 0
WINDOW 39 0 0 Left 0
SYMATTR InstName V4
SYMATTR Value 2.5
SYMBOL MCP6001 -6208 -160 M0
SYMATTR InstName U15
SYMBOL res -5856 -160 R90
WINDOW 0 0 56 VBottom 2
WINDOW 3 32 56 VTop 2
SYMATTR InstName R8
SYMATTR Value 100k
SYMBOL cap -6160 -288 R90
WINDOW 0 0 32 VBottom 2
WINDOW 3 32 32 VTop 2
SYMATTR InstName C6
SYMATTR Value 25n
SYMBOL res -4256 -112 R0
SYMATTR InstName R9
SYMATTR Value 5
SYMBOL diode -4256 -304 R0
SYMATTR InstName D1
SYMATTR Value L128-FRD1003500000
SYMBOL npn -688 -1632 R0
SYMATTR InstName npn1
SYMATTR Value 2N2222
SYMBOL pnp -688 -1744 M180
SYMATTR InstName pnp1
SYMATTR Value 2N2907
SYMBOL CD4069UB -1152 -1792 R0
SYMATTR InstName U16
SYMBOL CD4069UB -1152 -1584 R0
SYMATTR InstName U17
SYMBOL CD4069UB -960 -1792 R0
SYMATTR InstName U18
SYMBOL CD4069UB -960 -1584 R0
SYMATTR InstName U19
SYMBOL res -736 -1808 R90
WINDOW 0 0 56 VBottom 2
WINDOW 3 32 56 VTop 2
SYMATTR InstName R10
SYMATTR Value 2k
SYMBOL res -736 -1600 R90
WINDOW 0 0 56 VBottom 2
WINDOW 3 32 56 VTop 2
SYMATTR InstName R11
SYMATTR Value 2k
SYMBOL npn -688 -1088 R0
SYMATTR InstName npn2
SYMATTR Value 2N2222
SYMBOL pnp -688 -1200 M180
SYMATTR InstName pnp2
SYMATTR Value 2N2907
SYMBOL CD4069UB -1152 -1248 R0
SYMATTR InstName U20
SYMBOL CD4069UB -1152 -1040 R0
SYMATTR InstName U21
SYMBOL CD4069UB -960 -1248 R0
SYMATTR InstName U22
SYMBOL CD4069UB -960 -1040 R0
SYMATTR InstName U23
SYMBOL res -736 -1264 R90
WINDOW 0 0 56 VBottom 2
WINDOW 3 32 56 VTop 2
SYMATTR InstName R12
SYMATTR Value 2k
SYMBOL res -736 -1056 R90
WINDOW 0 0 56 VBottom 2
WINDOW 3 32 56 VTop 2
SYMATTR InstName R13
SYMATTR Value 2k
SYMBOL cap -2688 -1664 R90
WINDOW 0 0 32 VBottom 2
WINDOW 3 32 32 VTop 2
SYMATTR InstName C7
SYMATTR Value 0.000000000001
SYMBOL cap -2512 -1376 R90
WINDOW 0 0 32 VBottom 2
WINDOW 3 32 32 VTop 2
SYMATTR InstName C8
SYMATTR Value 0.000000000001
SYMBOL PowerProducts\\LTC1693-1 -2032 -1616 R0
SYMATTR InstName U24
SYMBOL pmos -1808 -1744 R0
WINDOW 3 70 -14 Left 2
SYMATTR Value Si4427DY
SYMATTR InstName M3
SYMBOL nmos -1808 -1536 R0
WINDOW 3 47 112 Left 2
SYMATTR Value NTMFS5C646NL
SYMATTR InstName M4
SYMBOL CD4069UB -2864 -1600 R90
SYMATTR InstName U25
SYMBOL CD4069UB -2336 -1504 R0
SYMATTR InstName U26
SYMBOL CD4069UB -2384 -1360 R180
SYMATTR InstName U27
SYMBOL CD4069UB -2240 -1360 R180
SYMATTR InstName U28
SYMBOL CD4069UB -2576 -1648 R180
SYMATTR InstName U29
SYMBOL SN74AHC00 -2592 -1776 R0
SYMATTR InstName U30
SYMBOL SN74AHC00 -2592 -1504 R0
SYMATTR InstName U31
SYMBOL cap -2672 -832 R90
WINDOW 0 0 32 VBottom 2
WINDOW 3 32 32 VTop 2
SYMATTR InstName C9
SYMATTR Value 0.000000000001
SYMBOL cap -2496 -544 R90
WINDOW 0 0 32 VBottom 2
WINDOW 3 32 32 VTop 2
SYMATTR InstName C10
SYMATTR Value 0.000000000001
SYMBOL PowerProducts\\LTC1693-1 -2016 -784 R0
SYMATTR InstName U32
SYMBOL pmos -1792 -912 R0
WINDOW 3 70 -14 Left 2
SYMATTR Value Si4427DY
SYMATTR InstName M5
SYMBOL nmos -1792 -704 R0
WINDOW 3 47 112 Left 2
SYMATTR Value NTMFS5C646NL
SYMATTR InstName M6
SYMBOL CD4069UB -2848 -768 R90
SYMATTR InstName U33
SYMBOL CD4069UB -2320 -672 R0
SYMATTR InstName U34
SYMBOL CD4069UB -2368 -528 R180
SYMATTR InstName U35
SYMBOL CD4069UB -2224 -528 R180
SYMATTR InstName U36
SYMBOL CD4069UB -2560 -816 R180
SYMATTR InstName U37
SYMBOL SN74AHC00 -2576 -944 R0
SYMATTR InstName U38
SYMBOL SN74AHC00 -2576 -672 R0
SYMATTR InstName U39
SYMBOL res -16 -1808 R90
WINDOW 0 0 56 VBottom 2
WINDOW 3 32 56 VTop 2
SYMATTR InstName R14
SYMATTR Value 1k
SYMBOL cap 80 -1808 R90
WINDOW 0 0 32 VBottom 2
WINDOW 3 32 32 VTop 2
SYMATTR InstName C11
SYMATTR Value 150n
SYMBOL res 0 -1056 R90
WINDOW 0 0 56 VBottom 2
WINDOW 3 32 56 VTop 2
SYMATTR InstName R15
SYMATTR Value 1k
SYMBOL cap 96 -1056 R90
WINDOW 0 0 32 VBottom 2
WINDOW 3 32 32 VTop 2
SYMATTR InstName C12
SYMATTR Value 150n
SYMBOL res -384 -1520 R0
SYMATTR InstName R16
SYMATTR Value 16
SYMBOL ind -384 -1376 R0
SYMATTR InstName L2
SYMATTR Value 100n
SYMBOL res -384 -1248 R0
SYMATTR InstName R17
SYMATTR Value 16
SYMBOL voltage -736 144 R0
WINDOW 123 0 0 Left 0
WINDOW 39 0 0 Left 0
SYMATTR InstName V7
SYMATTR Value SINE(2.5 0.9 3k)
SYMBOL UniversalOpAmp3 -96 48 R0
SYMATTR InstName U40
SYMBOL cap -224 16 R90
WINDOW 0 0 32 VBottom 2
WINDOW 3 32 32 VTop 2
SYMATTR InstName C13
SYMATTR Value 10n
SYMBOL res -48 -112 R90
WINDOW 0 0 56 VBottom 2
WINDOW 3 32 56 VTop 2
SYMATTR InstName R20
SYMATTR Value 313.48k
SYMBOL cap -64 -192 R90
WINDOW 0 0 32 VBottom 2
WINDOW 3 32 32 VTop 2
SYMATTR InstName C14
SYMATTR Value 10n
SYMBOL res -272 160 R180
WINDOW 0 36 76 Left 2
WINDOW 3 36 40 Left 2
SYMATTR InstName R21
SYMATTR Value 500.18
SYMBOL res -416 48 R270
WINDOW 0 32 56 VTop 2
WINDOW 3 0 56 VBottom 2
SYMATTR InstName R22
SYMATTR Value 159.2k
SYMBOL UniversalOpAmp3 -96 416 R0
SYMATTR InstName U41
SYMBOL cap -224 384 R90
WINDOW 0 0 32 VBottom 2
WINDOW 3 32 32 VTop 2
SYMATTR InstName C15
SYMATTR Value 10n
SYMBOL res -48 256 R90
WINDOW 0 0 56 VBottom 2
WINDOW 3 32 56 VTop 2
SYMATTR InstName R23
SYMATTR Value 106.23K
SYMBOL cap -64 176 R90
WINDOW 0 0 32 VBottom 2
WINDOW 3 32 32 VTop 2
SYMATTR InstName C16
SYMATTR Value 10n
SYMBOL res -272 528 R180
WINDOW 0 36 76 Left 2
WINDOW 3 36 40 Left 2
SYMATTR InstName R24
SYMATTR Value 266.727
SYMBOL res -416 416 R270
WINDOW 0 32 56 VTop 2
WINDOW 3 0 56 VBottom 2
SYMATTR InstName R25
SYMATTR Value 53k
SYMBOL res 928 80 R90
WINDOW 0 0 56 VBottom 2
WINDOW 3 32 56 VTop 2
SYMATTR InstName R26
SYMATTR Value 10k
SYMBOL res 928 240 R90
WINDOW 0 0 56 VBottom 2
WINDOW 3 32 56 VTop 2
SYMATTR InstName R27
SYMATTR Value 10k
SYMBOL MCP6001 1072 208 M180
SYMATTR InstName U42
SYMBOL MCP6001 1552 192 M180
SYMATTR InstName U43
SYMBOL res 1136 64 R90
WINDOW 0 0 56 VBottom 2
WINDOW 3 32 56 VTop 2
SYMATTR InstName R28
SYMATTR Value 10k
SYMBOL cap 1408 192 R90
WINDOW 0 0 32 VBottom 2
WINDOW 3 32 32 VTop 2
SYMATTR InstName C17
SYMATTR Value 100n
SYMBOL res 1440 192 R0
SYMATTR InstName R29
SYMATTR Value 200
SYMBOL cap 1712 224 R0
SYMATTR InstName C18
SYMATTR Value 100n
SYMBOL res 1776 176 R0
SYMATTR InstName R30
SYMATTR Value 16k
SYMBOL res 1776 288 R0
SYMATTR InstName R31
SYMATTR Value 28k
SYMBOL cap 1856 320 R0
SYMATTR InstName C19
SYMATTR Value 250n
SYMBOL diode 1632 208 R270
WINDOW 0 32 32 VTop 2
WINDOW 3 0 32 VBottom 2
SYMATTR InstName D3
TEXT -7408 -992 Left 2 !.tran 50m startup uic
TEXT -7408 -960 Left 2 !.inc C:\\Users\\amazi\\Documents\\LTspice\\CD4069UB.cir
TEXT -7408 -936 Left 2 !.inc C:\\Users\\amazi\\Documents\\LTspice\\SN74AHC00.cir
TEXT -7400 -904 Left 2 !.options Gmin = 1e-9
TEXT -7400 -880 Left 2 !.options abstol=1e-12\n.options reltol=0.01\n.options method=gear
RECTANGLE Normal 48 544 -400 -240 2
RECTANGLE Normal 48 544 -400 -240 2
